.options savecurrents

*output impedance output stage

* PHILIPS BJT'S
.MODEL BC557A PNP(IS=2.059E-14 ISE=2.971f ISC=1.339E-14 XTI=3 BF=227.3 BR=7.69 IKF=0.08719 IKR=0.07646 XTB=1.5 VAF=37.2 VAR=11.42 VJE=0.5912 VJC=0.1 RE=0.688 RC=0.6437 RB=1 RBM=1 IRB=1E-06 CJE=1.4E-11 CJC=1.113E-11 XCJC=0.6288 FC=0.7947 NF=1.003 NR=1.007 NE=1.316 NC=1.15 MJE=0.3572 MJC=0.3414 TF=7.046E-10 TR=1m2 ITF=0.1947 VTF=5.367 XTF=4.217 EG=1.11)
.MODEL BC547A NPN(IS=1.533E-14 ISE=7.932E-16 ISC=8.305E-14 XTI=3 BF=178.7 BR=8.628 IKF=0.1216 IKR=0.1121 XTB=1.5 VAF=69.7 VAR=44.7 VJE=0.4209 VJC=0.2 RE=0.6395 RC=0.6508 RB=1 RBM=1 IRB=1E-06 CJE=1.61E-11 CJC=4.388p XCJC=0.6193 FC=0.7762 NF=1.002 NR=1.004 NE=1.436 NC=1.207 MJE=0.3071 MJC=0.2793 TF=4.995E-10 TR=1m2 ITF=0.7021 VTF=3.523 XTF=139 EG=1.11)

Vcc vcc 0 12.0

Vin  aux 0 0.0 ac 1.0 sin(0 400 50) 

C emit2 aux 0.1m

Q2 0 0 emit2 BC557A
Rout emit2 vcc 100

.control
* time analysis
tran 1e-5 1e-2

<<<<<<< HEAD
*using a voltage source V = 1 V and applying Ohm's law with impedances V=Z*I -> Z=V/I=1/I


print 1/i(Vin)

echo "outimpedance_TAB"
print 1/i(Vin)
echo "outimpedance_END"
=======
echo "imp_TAB"
print v(aux)[40]/Vin#branch[40]
echo "imp_END"


>>>>>>> febbbf73965b8f1cf18f50255b3b2099d0e1e23f

quit
.endc 
.end
